1
    SWAT Jun 11 2014    VER 2012/Rev 627                                                                 0/ 0/   0      0: 0: 0

    General Input/Output section (file.cio):                                        
    10/6/2016 12:00:00 AM ARCGIS-SWAT interface AV                                  
                                                                                    
         Number of years in run:   29
         Area of watershed:   106124.000 km2
         Random number generator cycles: 0, use default numbers

         Initial random number seed: wet/dry day prob        748932582
         Initial random number seed: radiation              1948832765
         Initial random number seed: precipitation           857034417
         Initial random number seed: 0.5 hr rainfall          67377721
         Initial random number seed: wind speed              366304404
         Initial random number seed: irrigation             1094585182
         Initial random number seed: relative humidity      1767585417
         Initial random number seed: max temperature         608439319
         Initial random number seed: min temperature         592757081

         Precipitation data used in run:
          Multiple gages read for watershed
             Daily rainfall data used

         Temperature data used in run:
          Multiple gages read for watershed

         PET method used: Penman-Monteith

         Rainfall/Runoff/Routing Option:
          Daily rainfall data
          Runoff estimated with curve number method
          Daily stream routing
           Variable Storage routing method
           Channel dimensions remain constant
           Subbasin algae/CBOD loadings not modeled
           In-stream nutrient transformations modeled using QUAL2E equations

         Subbasin Input Summary:
          Sub Latitude  Elev(m) #HRUs Ponds Elevbnds Wetlnd
            1    36.71   781.64    32                   
            2    36.71   678.08    52                   
            3    36.71   136.58    80                   
            4    36.71   471.80    76                   
            5    36.71   473.43    44                   
            6    36.71   544.07    88                   
            7    36.71   134.20    52                   
            8    36.71   941.69    52                   
            9    36.71   731.07    36                   
           10    36.71   518.13    84                   
           11    36.71   408.07    68                   
           12    36.71   586.65    56                   
           13    36.71   696.61    36                   
           14    36.71   149.94    88                   
           15    36.71   351.18    72                   
           16    36.71   340.91   100                   
           17    36.71   282.12    55                   
           18    36.71   510.37    60                   
           19    36.71   333.76    92                   
           20    36.71   277.71    88                   
           21    36.71   488.21    68                   
           22    36.71   314.82    84                   
           23    36.71   980.66    79                   
           24    36.71   431.53    88                   
           25    36.71   178.04    52                   
           26    36.71   416.43    84                   
           27    36.71   792.12    64                   
           28    36.71   349.04    52                   
           29    36.71   221.25    48                   
           30    36.71  1042.15    60                   
           31    36.71   904.58    44                   
           32    36.71   687.37    64                   
           33    36.81   235.85    68                   
           34    36.81   310.77    72                   
           35    36.81   261.36    80                   
           36    36.81   163.81   108                   
           37    36.81   364.18    80                   
           38    36.81   238.58    72                   
           39    36.81   696.39    68                   
           40    36.81   270.88    60                   
           41    36.81   357.54   108                   
           42    36.81   327.49    88                   
           43    36.81   308.38   104                   
           44    36.81   628.33    56                   
           45    36.81   417.77    88                   
           46    36.81   427.47    52                   
           47    36.81   371.37    68                   
           48    36.81   261.10    84                   
           49    36.81   142.44   112                   
           50    36.81   183.89    96                   
           51    36.81   221.14   124                   
           52    36.81   247.98    64                   
           53    36.81   244.93   108                   
           54    36.81   216.12    72                   
           55    36.81   326.22    96                   

         HRU Input Summary Table 1:
          Sub   HRU   Area(ha) Slope SlpLgth(m) Ovrlnd_N CondII_CN TimeConc(hr) ESCO EPCO
            1      1    1067.27 0.015     121.95    0.369     45.53        2.024 0.82 0.55
            1      2     435.71 0.006     121.95    0.369     45.53        2.578 0.82 0.55
            1      3    5823.79 0.036      91.46    0.369     45.53        1.687 0.82 0.55
            1      4   42126.67 0.137      24.39    0.369     45.53        2.872 0.82 0.55
            1      5      10.66 0.007     121.95    0.369     45.53        2.420 0.82 0.55
            1      6      38.83 0.015     121.95    0.369     45.53        1.929 0.82 0.55
            1      7     229.01 0.037      91.46    0.369     45.53        1.261 0.82 0.55
            1      8   38429.90 0.379       9.15    0.369     45.53        2.456 0.82 0.55
            1      9      89.48 0.015     121.95    0.369     45.53        1.935 0.82 0.55
            1     10      50.26 0.006     121.95    0.369     45.53        2.539 0.82 0.55
            1     11     554.18 0.037      91.46    0.369     45.53        1.291 0.82 0.55
            1     12   43540.48 0.342       9.15    0.369     45.53        2.727 0.82 0.55
            1     13     285.95 0.016     121.95    0.369     45.53        1.919 0.82 0.55
            1     14    1452.36 0.036      91.46    0.369     45.53        1.376 0.82 0.55
            1     15   28009.63 0.227      15.24    0.369     45.53        1.990 0.82 0.55
            1     16     151.93 0.005     121.95    0.369     45.53        2.693 0.82 0.55
            1     17     349.95 0.015     121.95    0.369     96.95        1.962 0.82 0.55
            1     18     147.18 0.006     121.95    0.369     96.95        2.550 0.82 0.55
            1     19    1695.05 0.036      91.46    0.369     96.95        1.395 0.82 0.55
            1     20    8021.45 0.134      24.39    0.369     96.95        0.964 0.82 0.55
            1     21      62.65 0.015     121.95    0.369     45.53        1.932 0.82 0.55
            1     22      34.81 0.006     121.95    0.369     45.53        2.538 0.82 0.55
            1     23    2347.40 0.160      24.39    0.369     45.53        0.559 0.82 0.55
            1     24     255.54 0.036      91.46    0.369     45.53        1.274 0.82 0.55
            1     25      46.85 0.037      91.46    0.369     45.53        1.241 0.82 0.55
            1     26       4.05 0.006     121.95    0.369     45.53        2.533 0.82 0.55
            1     27       7.69 0.015     121.95    0.369     45.53        1.925 0.82 0.55
            1     28     525.28 0.161      18.29    0.369     45.53        0.356 0.82 0.55
            1     29       6.09 0.007     121.95    0.369     45.53        2.419 0.82 0.55
            1     30     602.30 0.158      24.39    0.369     45.53        0.422 0.82 0.55
            1     31     105.72 0.035      91.46    0.369     45.53        1.269 0.82 0.55
            1     32      19.44 0.015     121.95    0.369     45.53        1.927 0.82 0.55
            2     33     367.90 0.015     121.95    0.404     52.12        2.116 0.89 0.25
            2     34     167.43 0.006     121.95    0.404     52.12        2.716 0.89 0.25
            2     35    2074.81 0.036      91.46    0.404     52.12        1.697 0.89 0.25
            2     36   30223.06 0.193      18.29    0.404     52.12        4.291 0.89 0.25
            2     37    5628.31 0.221      15.24    0.404     52.12        1.177 0.89 0.25
            2     38     497.33 0.035      91.46    0.404     52.12        1.435 0.89 0.25
            2     39     122.04 0.015     121.95    0.404     52.12        2.063 0.89 0.25
            2     40      75.69 0.005     121.95    0.404     52.12        2.846 0.89 0.25
            2     41      63.00 0.015     121.95    0.404     52.12        2.049 0.89 0.25
            2     42   46559.36 0.381       9.15    0.404     52.12        5.984 0.89 0.25
            2     43      30.47 0.006     121.95    0.404     52.12        2.684 0.89 0.25
            2     44     363.63 0.037      91.46    0.404     52.12        1.387 0.89 0.25
            2     45      32.92 0.006     121.95    0.404     52.12        2.684 0.89 0.25
            2     46     524.40 0.037      91.46    0.404     52.12        1.419 0.89 0.25
            2     47      83.75 0.016     121.95    0.404     52.12        2.015 0.89 0.25
            2     48   31611.41 0.296       9.15    0.404     52.12        4.324 0.89 0.25
            2     49     285.84 0.036      91.46    0.404     52.12        1.382 0.89 0.25
            2     50   34948.43 0.363       9.15    0.404     52.12        4.695 0.89 0.25
            2     51      43.43 0.015     121.95    0.404     52.12        2.044 0.89 0.25
            2     52      20.36 0.005     121.95    0.404     52.12        2.831 0.89 0.25
            2     53   19773.62 0.355       9.15    0.404     52.12        2.918 0.89 0.25
            2     54     329.54 0.036      91.46    0.404     52.12        1.391 0.89 0.25
            2     55      71.95 0.015     121.95    0.404     52.12        2.052 0.89 0.25
            2     56      60.66 0.004     121.95    0.404     52.12        3.037 0.89 0.25
            2     57      15.44 0.005     121.95    0.404     97.08        2.830 0.89 0.25
            2     58    1128.31 0.236      15.24    0.404     97.08        0.480 0.89 0.25
            2     59      25.73 0.015     121.95    0.404     97.08        2.040 0.89 0.25
            2     60     103.91 0.036      91.46    0.404     97.08        1.342 0.89 0.25
            2     61      74.38 0.016     121.95    0.404     97.08        2.013 0.89 0.25
            2     62      32.55 0.006     121.95    0.404     97.08        2.684 0.89 0.25
            2     63    3933.89 0.196      18.29    0.404     97.08        0.971 0.89 0.25
            2     64     394.08 0.036      91.46    0.404     97.08        1.404 0.89 0.25
            2     65     230.91 0.036      91.46    0.404     97.08        1.371 0.89 0.25
            2     66      44.00 0.016     121.95    0.404     97.08        2.006 0.89 0.25
            2     67      19.42 0.006     121.95    0.404     97.08        2.680 0.89 0.25
            2     68    1471.11 0.195      18.29    0.404     97.08        0.585 0.89 0.25
            2     69       8.97 0.005     121.95    0.404     52.12        2.828 0.89 0.25
            2     70     947.60 0.206      15.24    0.404     52.12        0.459 0.89 0.25
            2     71      15.82 0.015     121.95    0.404     52.12        2.037 0.89 0.25
            2     72      78.09 0.036      91.46    0.404     52.12        1.336 0.89 0.25
            2     73       5.10 0.006     121.95    0.404     52.12        2.676 0.89 0.25
            2     74      12.58 0.016     121.95    0.404     52.12        1.997 0.89 0.25
            2     75    1080.11 0.184      18.29    0.404     52.12        0.523 0.89 0.25
            2     76      78.35 0.037      91.46    0.404     52.12        1.326 0.89 0.25
            2     77      14.33 0.006     121.95    0.404     52.12        2.679 0.89 0.25
            2     78      33.00 0.016     121.95    0.404     52.12        2.003 0.89 0.25
            2     79     193.31 0.036      91.46    0.404     52.12        1.362 0.89 0.25
            2     80    3383.22 0.197      18.29    0.404     52.12        0.888 0.89 0.25
            2     81     123.17 0.036      91.46    0.404     52.12        1.347 0.89 0.25
            2     82    1609.71 0.202      15.24    0.404     52.12        0.574 0.89 0.25
            2     83      24.41 0.015     121.95    0.404     52.12        2.039 0.89 0.25
            2     84      13.69 0.006     121.95    0.404     52.12        2.679 0.89 0.25
            3     85     950.17 0.014     121.95    0.443     73.51        2.355 0.36 0.74
            3     86    2129.64 0.005     121.95    0.443     73.51        3.316 0.36 0.74
            3     87     639.51 0.030      91.46    0.443     73.51        1.583 0.36 0.74
            3     88     171.78 0.087      60.98    0.443     73.51        0.872 0.36 0.74
            3     89    2361.53 0.006     121.95    0.443     73.51        3.188 0.36 0.74
            3     90    3045.69 0.014     121.95    0.443     73.51        2.644 0.36 0.74
            3     91    2758.65 0.031      91.46    0.443     73.51        1.868 0.36 0.74
            3     92     430.25 0.066      60.98    0.443     73.51        0.990 0.36 0.74
            3     93     772.33 0.015     121.95    0.443     73.51        2.283 0.36 0.74
            3     94     430.88 0.006     121.95    0.443     73.51        2.908 0.36 0.74
            3     95     942.14 0.077      60.98    0.443     73.51        1.029 0.36 0.74
            3     96    1695.56 0.033      91.46    0.443     73.51        1.697 0.36 0.74
            3     97     840.15 0.030      91.46    0.443     73.51        1.614 0.36 0.74
            3     98    1255.31 0.014     121.95    0.443     73.51        2.400 0.36 0.74
            3     99    3651.53 0.005     121.95    0.443     73.51        3.515 0.36 0.74
            3    100     262.59 0.087      60.98    0.443     73.51        0.889 0.36 0.74
            3    101    3300.50 0.014     121.95    0.443     73.51        2.677 0.36 0.74
            3    102    2718.79 0.030      91.46    0.443     73.51        1.877 0.36 0.74
            3    103    2746.87 0.006     121.95    0.443     73.51        3.240 0.36 0.74
            3    104     391.74 0.065      60.98    0.443     73.51        0.988 0.36 0.74
            3    105    1763.45 0.034      91.46    0.443     73.51        1.694 0.36 0.74
            3    106    1113.38 0.078      60.98    0.443     73.51        1.051 0.36 0.74
            3    107     460.52 0.007     121.95    0.443     73.51        2.785 0.36 0.74
            3    108     826.32 0.015     121.95    0.443     73.51        2.291 0.36 0.74
            3    109    1610.71 0.006     121.95    0.443     73.51        3.085 0.36 0.74
            3    110     224.62 0.067      60.98    0.443     73.51        0.950 0.36 0.74
            3    111    1888.40 0.014     121.95    0.443     73.51        2.490 0.36 0.74
            3    112    1631.46 0.030      91.46    0.443     73.51        1.729 0.36 0.74
            3    113     319.54 0.073      60.98    0.443     73.51        0.944 0.36 0.74
            3    114     210.70 0.006     121.95    0.443     73.51        2.870 0.36 0.74
            3    115     736.80 0.033      91.46    0.443     73.51        1.557 0.36 0.74
            3    116     376.38 0.015     121.95    0.443     73.51        2.219 0.36 0.74
            3    117     622.21 0.007     121.95    0.443     73.51        2.811 0.36 0.74
            3    118     580.25 0.071      60.98    0.443     73.51        0.995 0.36 0.74
            3    119    1391.04 0.033      91.46    0.443     73.51        1.654 0.36 0.74
            3    120     905.87 0.015     121.95    0.443     73.51        2.303 0.36 0.74
            3    121    2182.59 0.035      91.46    0.443     73.51        1.739 0.36 0.74
            3    122    2169.68 0.083      60.98    0.443     73.51        1.184 0.36 0.74
            3    123     344.86 0.006     121.95    0.443     73.51        2.893 0.36 0.74
            3    124     744.45 0.015     121.95    0.443     73.51        2.279 0.36 0.74
            3    125    2355.41 0.014     121.95    0.443     73.51        2.553 0.36 0.74
            3    126    2264.73 0.032      91.46    0.443     73.51        1.788 0.36 0.74
            3    127    5701.52 0.004     121.95    0.443     73.51        3.975 0.36 0.74
            3    128    2238.51 0.103      60.98    0.443     73.51        1.140 0.36 0.74
            3    129    4584.89 0.082      60.98    0.443     73.51        1.498 0.36 0.74
            3    130    2470.08 0.006     121.95    0.443     73.51        3.203 0.36 0.74
            3    131    3607.03 0.015     121.95    0.443     73.51        2.672 0.36 0.74
            3    132    5761.66 0.033      91.46    0.443     73.51        2.217 0.36 0.74
            3    133    1265.64 0.006     121.95    0.443     73.51        3.036 0.36 0.74
            3    134   11339.74 0.036      91.46    0.443     73.51        2.819 0.36 0.74
            3    135   24766.65 0.094      60.98    0.443     73.51        3.649 0.36 0.74
            3    136    2770.81 0.015     121.95    0.443     73.51        2.563 0.36 0.74
            3    137    1405.13 0.006     121.95    0.443     97.51        3.056 0.36 0.74
            3    138    1988.20 0.015     121.95    0.443     97.51        2.458 0.36 0.74
            3    139    2265.78 0.032      91.46    0.443     97.51        1.789 0.36 0.74
            3    140     763.25 0.072      60.98    0.443     97.51        1.020 0.36 0.74
            3    141    2268.29 0.081      60.98    0.443     97.51        1.204 0.36 0.74
            3    142    2351.62 0.035      91.46    0.443     97.51        1.762 0.36 0.74
            3    143     443.71 0.007     121.95    0.443     97.51        2.782 0.36 0.74
            3    144     919.05 0.015     121.95    0.443     97.51        2.305 0.36 0.74
            3    145    2167.61 0.006     121.95    0.443     73.51        3.162 0.36 0.74
            3    146    5222.52 0.033      91.46    0.443     73.51        2.151 0.36 0.74
            3    147    2464.07 0.074      60.98    0.443     73.51        1.253 0.36 0.74
            3    148    3302.09 0.015     121.95    0.443     73.51        2.633 0.36 0.74
            3    149    2329.37 0.015     121.95    0.443     73.51        2.505 0.36 0.74
            3    150    7692.22 0.035      91.46    0.443     73.51        2.419 0.36 0.74
            3    151    1054.32 0.007     121.95    0.443     73.51        2.877 0.36 0.74
            3    152    9473.79 0.084      60.98    0.443     73.51        2.066 0.36 0.74
            3    153     200.42 0.029      91.46    0.443     73.51        1.524 0.36 0.74
            3    154      39.27 0.087      60.98    0.443     73.51        0.846 0.36 0.74
            3    155    2957.81 0.003     121.95    0.443     73.51        3.920 0.36 0.74
            3    156     413.14 0.014     121.95    0.443     73.51        2.271 0.36 0.74
            3    157     384.85 0.091      60.98    0.443     73.51        0.899 0.36 0.74
            3    158     418.18 0.033      91.46    0.443     73.51        1.506 0.36 0.74
            3    159     334.97 0.014     121.95    0.443     73.51        2.257 0.36 0.74
            3    160    1075.11 0.004     121.95    0.443     73.51        3.374 0.36 0.74
            3    161     212.06 0.032      91.46    0.443     73.51        1.483 0.36 0.74
            3    162     209.66 0.014     121.95    0.443     73.51        2.235 0.36 0.74
            3    163     172.79 0.089      60.98    0.443     73.51        0.867 0.36 0.74
            3    164     837.03 0.004     121.95    0.443     73.51        3.338 0.36 0.74
            4    165    1079.84 0.128      24.39    0.369     45.53        0.516 0.82 0.55
            4    166      34.69 0.015     121.95    0.369     45.53        1.930 0.82 0.55
            4    167     211.05 0.037      91.46    0.369     45.53        1.266 0.82 0.55
            4    168      10.47 0.006     121.95    0.369     45.53        2.535 0.82 0.55
            4    169      65.36 0.005     121.95    0.369     45.53        2.686 0.82 0.55
            4    170     870.25 0.158      24.39    0.369     45.53        0.470 0.82 0.55
            4    171     178.79 0.034      91.46    0.369     45.53        1.294 0.82 0.55
            4    172      79.23 0.015     121.95    0.369     45.53        1.937 0.82 0.55
            4    173       3.29 0.006     121.95    0.369     45.53        2.533 0.82 0.55
            4    174       5.84 0.015     121.95    0.369     45.53        1.925 0.82 0.55
            4    175      32.25 0.038      91.46    0.369     45.53        1.231 0.82 0.55
            4    176     662.24 0.188      18.29    0.369     45.53        0.374 0.82 0.55
            4    177     132.27 0.036      91.46    0.369     45.53        1.266 0.82 0.55
            4    178      26.19 0.015     121.95    0.369     45.53        1.929 0.82 0.55
            4    179      24.21 0.004     121.95    0.369     45.53        2.865 0.82 0.55
            4    180    2439.36 0.208      15.24    0.369     45.53        0.518 0.82 0.55
            4    181       9.79 0.007     121.95    0.369     45.53        2.420 0.82 0.55
            4    182     186.37 0.037      91.46    0.369     45.53        1.263 0.82 0.55
            4    183      30.82 0.016     121.95    0.369     45.53        1.893 0.82 0.55
            4    184    3249.00 0.202      15.24    0.369     45.53        0.597 0.82 0.55
            4    185      84.79 0.015     121.95    0.369     45.53        1.938 0.82 0.55
            4    186    7274.44 0.246      15.24    0.369     45.53        0.934 0.82 0.55
            4    187     348.14 0.036      91.46    0.369     45.53        1.294 0.82 0.55
            4    188      56.88 0.005     121.95    0.369     45.53        2.685 0.82 0.55
            4    189      31.75 0.038      91.46    0.369     45.53        1.231 0.82 0.55
            4    190       4.50 0.015     121.95    0.369     45.53        1.925 0.82 0.55
            4    191       2.11 0.008     121.95    0.369     45.53        2.324 0.82 0.55
            4    192    2601.00 0.345       9.15    0.369     45.53        0.442 0.82 0.55
            4    193      97.28 0.037      91.46    0.369     96.95        1.251 0.82 0.55
            4    194      17.88 0.015     121.95    0.369     96.95        1.927 0.82 0.55
            4    195      11.49 0.004     121.95    0.369     96.95        2.863 0.82 0.55
            4    196     881.05 0.157      24.39    0.369     96.95        0.472 0.82 0.55
            4    197    2134.60 0.148      24.39    0.369     96.95        0.607 0.82 0.55
            4    198      17.76 0.007     121.95    0.369     96.95        2.422 0.82 0.55
            4    199      49.92 0.015     121.95    0.369     96.95        1.933 0.82 0.55
            4    200     298.21 0.036      91.46    0.369     96.95        1.287 0.82 0.55
            4    201     130.01 0.005     121.95    0.369     96.95        2.695 0.82 0.55
            4    202     369.02 0.035      91.46    0.369     96.95        1.307 0.82 0.55
            4    203    1984.74 0.171      18.29    0.369     96.95        0.520 0.82 0.55
            4    204     145.56 0.015     121.95    0.369     96.95        1.947 0.82 0.55
            4    205      51.87 0.015     121.95    0.369     51.30        1.933 0.82 0.55
            4    206      14.44 0.007     121.95    0.369     51.30        2.421 0.82 0.55
            4    207     231.29 0.036      91.46    0.369     51.30        1.279 0.82 0.55
            4    208    1225.89 0.133      24.39    0.369     51.30        0.527 0.82 0.55
            4    209      86.65 0.015     121.95    0.369     51.30        1.938 0.82 0.55
            4    210     198.71 0.034      91.46    0.369     51.30        1.296 0.82 0.55
            4    211     733.96 0.155      24.39    0.369     51.30        0.457 0.82 0.55
            4    212      83.41 0.005     121.95    0.369     51.30        2.689 0.82 0.55
            4    213     321.29 0.123      24.39    0.369     51.30        0.435 0.82 0.55
            4    214     256.59 0.033      91.46    0.369     51.30        1.315 0.82 0.55
            4    215      88.27 0.006     121.95    0.369     51.30        2.547 0.82 0.55
            4    216     140.49 0.015     121.95    0.369     51.30        1.946 0.82 0.55
            4    217     128.64 0.111      60.98    0.369     65.47        0.717 0.82 0.55
            4    218      45.17 0.035      91.46    0.369     65.47        1.264 0.82 0.55
            4    219      15.02 0.015     121.95    0.369     65.47        1.927 0.82 0.55
            4    220       6.42 0.007     121.95    0.369     65.47        2.420 0.82 0.55
            4    221     187.85 0.140      24.39    0.369     65.47        0.403 0.82 0.55
            4    222      72.49 0.005     121.95    0.369     65.47        2.687 0.82 0.55
            4    223      46.80 0.015     121.95    0.369     65.47        1.932 0.82 0.55
            4    224      84.46 0.033      91.46    0.369     65.47        1.292 0.82 0.55
            4    225      94.80 0.106      60.98    0.369     65.47        0.722 0.82 0.55
            4    226     120.48 0.032      91.46    0.369     65.47        1.309 0.82 0.55
            4    227      79.45 0.015     121.95    0.369     65.47        1.937 0.82 0.55
            4    228      70.42 0.006     121.95    0.369     65.47        2.545 0.82 0.55
            4    229       5.51 0.005     121.95    0.369     45.53        2.676 0.82 0.55
            4    230     818.03 0.166      18.29    0.369     45.53        0.402 0.82 0.55
            4    231      81.73 0.037      91.46    0.369     45.53        1.248 0.82 0.55
            4    232      12.43 0.016     121.95    0.369     45.53        1.890 0.82 0.55
            4    233      27.32 0.006     121.95    0.369     45.53        2.538 0.82 0.55
            4    234      74.93 0.016     121.95    0.369     45.53        1.900 0.82 0.55
            4    235    3004.28 0.135      24.39    0.369     45.53        0.700 0.82 0.55
            4    236     452.40 0.037      91.46    0.369     45.53        1.296 0.82 0.55
            4    237     112.92 0.015     121.95    0.369     45.53        1.942 0.82 0.55
            4    238    2605.47 0.173      18.29    0.369     45.53        0.579 0.82 0.55
            4    239     354.02 0.035      91.46    0.369     45.53        1.305 0.82 0.55
            4    240      58.87 0.006     121.95    0.369     45.53        2.543 0.82 0.55
            5    241       3.56 0.006     121.95    0.369     45.53        2.534 0.82 0.55
            5    242     450.00 0.132      24.39    0.369     45.53        0.464 0.82 0.55
            5    243      61.38 0.037      91.46    0.369     45.53        1.249 0.82 0.55
            5    244       9.32 0.016     121.95    0.369     45.53        1.890 0.82 0.55
            5    245      17.18 0.006     121.95    0.369     45.53        2.537 0.82 0.55
            5    246     197.66 0.036      91.46    0.369     45.53        1.285 0.82 0.55
            5    247     789.91 0.114      60.98    0.369     45.53        0.826 0.82 0.55
            5    248      42.11 0.015     121.95    0.369     45.53        1.934 0.82 0.55
            5    249      17.69 0.015     121.95    0.369     45.53        1.929 0.82 0.55
            5    250      19.31 0.003     121.95    0.369     45.53        3.123 0.82 0.55
            5    251      90.71 0.036      91.46    0.369     45.53        1.265 0.82 0.55
            5    252    2216.75 0.220      15.24    0.369     45.53        0.582 0.82 0.55
            5    253      34.30 0.015     121.95    0.369     45.53        1.933 0.82 0.55
            5    254     166.33 0.036      91.46    0.369     45.53        1.280 0.82 0.55
            5    255      18.66 0.006     121.95    0.369     45.53        2.538 0.82 0.55
            5    256    2167.24 0.190      18.29    0.369     45.53        0.616 0.82 0.55
            5    257       1.29 0.005     121.95    0.369     45.53        2.675 0.82 0.55
            5    258     606.10 0.247      15.24    0.369     45.53        0.346 0.82 0.55
            5    259      13.27 0.038      91.46    0.369     45.53        1.229 0.82 0.55
            5    260       2.16 0.016     121.95    0.369     45.53        1.888 0.82 0.55
            5    261      10.41 0.006     121.95    0.369     96.95        2.536 0.82 0.55
            5    262      22.47 0.016     121.95    0.369     96.95        1.893 0.82 0.55
            5    263     134.70 0.036      91.46    0.369     96.95        1.274 0.82 0.55
            5    264    1130.86 0.152      24.39    0.369     96.95        0.551 0.82 0.55
            5    265    1521.59 0.133      24.39    0.369     96.95        0.621 0.82 0.55
            5    266      28.50 0.006     121.95    0.369     96.95        2.540 0.82 0.55
            5    267      58.31 0.015     121.95    0.369     96.95        1.938 0.82 0.55
            5    268     270.82 0.036      91.46    0.369     96.95        1.298 0.82 0.55
            5    269       1.95 0.006     121.95    0.369     51.30        2.533 0.82 0.55
            5    270       5.62 0.015     121.95    0.369     51.30        1.926 0.82 0.55
            5    271      32.31 0.037      91.46    0.369     51.30        1.243 0.82 0.55
            5    272     280.96 0.139      24.39    0.369     51.30        0.431 0.82 0.55
            5    273      15.34 0.006     121.95    0.369     51.30        2.537 0.82 0.55
            5    274     111.09 0.036      91.46    0.369     51.30        1.269 0.82 0.55
            5    275     456.67 0.121      24.39    0.369     51.30        0.476 0.82 0.55
            5    276      26.15 0.015     121.95    0.369     51.30        1.931 0.82 0.55
            5    277      29.49 0.015     121.95    0.369     45.53        1.932 0.82 0.55
            5    278    1840.83 0.148      24.39    0.369     45.53        0.653 0.82 0.55
            5    279     179.48 0.037      91.46    0.369     45.53        1.272 0.82 0.55
            5    280      15.54 0.006     121.95    0.369     45.53        2.537 0.82 0.55
            5    281    2700.46 0.132      24.39    0.369     45.53        0.779 0.82 0.55
            5    282      30.87 0.006     121.95    0.369     45.53        2.540 0.82 0.55
            5    283      75.16 0.016     121.95    0.369     45.53        1.904 0.82 0.55
            5    284     431.14 0.037      91.46    0.369     45.53        1.315 0.82 0.55
            6    285      15.91 0.006     121.95    0.369     45.53        2.537 0.82 0.55
            6    286    1073.24 0.121      24.39    0.369     45.53        0.553 0.82 0.55
            6    287     205.24 0.036      91.46    0.369     45.53        1.283 0.82 0.55
            6    288      36.34 0.015     121.95    0.369     45.53        1.932 0.82 0.55
            6    289    1055.47 0.115      60.98    0.369     45.53        0.848 0.82 0.55
            6    290     251.68 0.036      91.46    0.369     45.53        1.290 0.82 0.55
            6    291      23.45 0.006     121.95    0.369     45.53        2.538 0.82 0.55
            6    292      48.52 0.015     121.95    0.369     45.53        1.935 0.82 0.55
            6    293    6953.24 0.141      24.39    0.369     45.53        1.203 0.82 0.55
            6    294     154.98 0.015     121.95    0.369     45.53        1.954 0.82 0.55
            6    295      70.35 0.006     121.95    0.369     45.53        2.547 0.82 0.55
            6    296     864.05 0.037      91.46    0.369     45.53        1.368 0.82 0.55
            6    297     448.21 0.036      91.46    0.369     45.53        1.320 0.82 0.55
            6    298   18988.64 0.347       9.15    0.369     45.53        2.154 0.82 0.55
            6    299      93.74 0.015     121.95    0.369     45.53        1.943 0.82 0.55
            6    300      92.02 0.004     121.95    0.369     45.53        2.879 0.82 0.55
            6    301       5.45 0.016     121.95    0.369     45.53        1.889 0.82 0.55
            6    302      56.28 0.038      91.46    0.369     45.53        1.237 0.82 0.55
            6    303       1.29 0.007     121.95    0.369     45.53        2.419 0.82 0.55
            6    304    6546.76 0.349       9.15    0.369     45.53        0.944 0.82 0.55
            6    305      25.55 0.006     121.95    0.369     45.53        2.539 0.82 0.55
            6    306    6872.21 0.213      15.24    0.369     45.53        1.069 0.82 0.55
            6    307     312.53 0.037      91.46    0.369     45.53        1.290 0.82 0.55
            6    308      55.56 0.015     121.95    0.369     45.53        1.936 0.82 0.55
            6    309     139.13 0.139      24.39    0.369     45.53        0.403 0.82 0.55
            6    310      35.13 0.034      91.46    0.369     45.53        1.275 0.82 0.55
            6    311      21.33 0.015     121.95    0.369     45.53        1.929 0.82 0.55
            6    312     143.18 0.001     121.95    0.369     45.53        4.363 0.82 0.55
            6    313      23.89 0.034      91.46    0.369     45.53        1.272 0.82 0.55
            6    314      96.35 0.240      15.24    0.369     45.53        0.260 0.82 0.55
            6    315      49.62 0.002     121.95    0.369     45.53        3.532 0.82 0.55
            6    316      11.59 0.014     121.95    0.369     45.53        1.967 0.82 0.55
            6    317     176.46 0.165      18.29    0.369     45.53        0.333 0.82 0.55
            6    318      81.39 0.033      91.46    0.369     45.53        1.295 0.82 0.55
            6    319     735.52 0.001     121.95    0.369     45.53        4.451 0.82 0.55
            6    320      47.53 0.015     121.95    0.369     45.53        1.934 0.82 0.55
            6    321     226.33 0.036      91.46    0.369     96.95        1.286 0.82 0.55
            6    322      48.84 0.016     121.95    0.369     96.95        1.898 0.82 0.55
            6    323    1165.27 0.136      24.39    0.369     96.95        0.552 0.82 0.55
            6    324      15.43 0.006     121.95    0.369     96.95        2.536 0.82 0.55
            6    325      50.93 0.015     121.95    0.369     96.95        1.935 0.82 0.55
            6    326     289.28 0.036      91.46    0.369     96.95        1.296 0.82 0.55
            6    327    1510.23 0.129      24.39    0.369     96.95        0.602 0.82 0.55
            6    328      22.93 0.006     121.95    0.369     96.95        2.538 0.82 0.55
            6    329    1157.34 0.230      15.24    0.369     96.95        0.416 0.82 0.55
            6    330      33.51 0.015     121.95    0.369     96.95        1.932 0.82 0.55
            6    331      19.29 0.005     121.95    0.369     96.95        2.680 0.82 0.55
            6    332     147.62 0.037      91.46    0.369     96.95        1.263 0.82 0.55
            6    333      26.24 0.006     121.95    0.369     96.95        2.539 0.82 0.55
            6    334      59.53 0.015     121.95    0.369     96.95        1.937 0.82 0.55
            6    335     309.56 0.036      91.46    0.369     96.95        1.299 0.82 0.55
            6    336    1518.72 0.129      24.39    0.369     96.95        0.603 0.82 0.55
            6    337      89.41 0.015     121.95    0.369     96.95        1.942 0.82 0.55
            6    338     453.10 0.036      91.46    0.369     96.95        1.321 0.82 0.55
            6    339    2431.09 0.131      24.39    0.369     96.95        0.713 0.82 0.55
            6    340      41.34 0.006     121.95    0.369     96.95        2.542 0.82 0.55
            6    341     346.95 0.124      24.39    0.369     51.30        0.449 0.82 0.55
            6    342      24.25 0.015     121.95    0.369     51.30        1.930 0.82 0.55
            6    343      93.12 0.035      91.46    0.369     51.30        1.275 0.82 0.55
            6    344      10.29 0.006     121.95    0.369     51.30        2.535 0.82 0.55
            6    345     115.88 0.036      91.46    0.369     51.30        1.268 0.82 0.55
            6    346     455.85 0.112      60.98    0.369     51.30        0.771 0.82 0.55
            6    347       8.35 0.006     121.95    0.369     51.30        2.535 0.82 0.55
            6    348      17.84 0.015     121.95    0.369     51.30        1.928 0.82 0.55
            6    349     917.98 0.112      60.98    0.369     51.30        0.835 0.82 0.55
            6    350     286.32 0.036      91.46    0.369     51.30        1.296 0.82 0.55
            6    351      59.94 0.015     121.95    0.369     51.30        1.937 0.82 0.55
            6    352      23.79 0.006     121.95    0.369     51.30        2.538 0.82 0.55
            6    353      28.02 0.005     121.95    0.369     51.30        2.682 0.82 0.55
            6    354     962.26 0.115      60.98    0.369     51.30        0.836 0.82 0.55
            6    355      61.08 0.015     121.95    0.369     51.30        1.937 0.82 0.55
            6    356     293.76 0.036      91.46    0.369     51.30        1.297 0.82 0.55
            6    357     605.33 0.037      91.46    0.369     45.53        1.333 0.82 0.55
            6    358    3731.42 0.131      24.39    0.369     45.53        0.863 0.82 0.55
            6    359      96.71 0.016     121.95    0.369     45.53        1.907 0.82 0.55
            6    360      38.88 0.006     121.95    0.369     45.53        2.541 0.82 0.55
            6    361      66.25 0.015     121.95    0.369     45.53        1.938 0.82 0.55
            6    362      48.30 0.005     121.95    0.369     45.53        2.686 0.82 0.55
            6    363    1569.14 0.124      24.39    0.369     45.53        0.614 0.82 0.55
            6    364     299.67 0.036      91.46    0.369     45.53        1.298 0.82 0.55
            6    365    4371.63 0.125      24.39    0.369     45.53        0.940 0.82 0.55
            6    366     773.04 0.036      91.46    0.369     45.53        1.366 0.82 0.55
            6    367     135.93 0.016     121.95    0.369     45.53        1.913 0.82 0.55
            6    368      56.83 0.006     121.95    0.369     45.53        2.545 0.82 0.55
            6    369      59.38 0.015     121.95    0.369     45.53        1.937 0.82 0.55
            6    370      45.64 0.005     121.95    0.369     45.53        2.685 0.82 0.55
            6    371    1813.30 0.181      18.29    0.369     45.53        0.548 0.82 0.55
            6    372     282.17 0.036      91.46    0.369     45.53        1.295 0.82 0.55
            7    373   31407.43 0.106      60.98    0.419     77.95        4.927 0.72 0.17
            7    374    8960.19 0.036      91.46    0.419     77.95        2.734 0.72 0.17
            7    375    2147.37 0.015     121.95    0.419     77.95        2.475 0.72 0.17
            7    376    1025.87 0.006     121.95    0.419     77.95        2.942 0.72 0.17
            7    377     173.95 0.005     121.95    0.419     77.95        2.931 0.72 0.17
            7    378     362.18 0.015     121.95    0.419     77.95        2.160 0.72 0.17
            7    379    1749.68 0.036      91.46    0.419     77.95        1.676 0.72 0.17
            7    380   13495.43 0.137      24.39    0.419     77.95        2.396 0.72 0.17
            7    381     202.49 0.005     121.95    0.419     77.95        2.937 0.72 0.17
            7    382    2000.53 0.035      91.46    0.419     77.95        1.729 0.72 0.17
            7    383   16485.60 0.146      24.39    0.419     77.95        2.769 0.72 0.17
            7    384     434.79 0.015     121.95    0.419     77.95        2.175 0.72 0.17
            7    385     353.15 0.014     121.95    0.419     77.95        2.202 0.72 0.17
            7    386    1035.47 0.136      24.39    0.419     77.95        0.618 0.72 0.17
            7    387   20387.72 0.000     121.95    0.419     77.95       12.189 0.72 0.17
            7    388     433.17 0.033      91.46    0.419     77.95        1.477 0.72 0.17
            7    389     170.87 0.140      24.39    0.419     77.95        0.448 0.72 0.17
            7    390     111.20 0.034      91.46    0.419     77.95        1.397 0.72 0.17
            7    391    3946.33 0.000     121.95    0.419     77.95       10.013 0.72 0.17
            7    392      64.79 0.014     121.95    0.419     77.95        2.138 0.72 0.17
            7    393     166.93 0.081      60.98    0.419     97.60        0.869 0.72 0.17
            7    394     328.28 0.032      91.46    0.419     97.60        1.469 0.72 0.17
            7    395     183.48 0.006     121.95    0.419     97.60        2.779 0.72 0.17
            7    396     259.97 0.015     121.95    0.419     97.60        2.139 0.72 0.17
            7    397     831.85 0.035      91.46    0.419     97.60        1.529 0.72 0.17
            7    398    1204.21 0.087      60.98    0.419     97.60        1.049 0.72 0.17
            7    399     273.39 0.015     121.95    0.419     97.60        2.142 0.72 0.17
            7    400     131.74 0.006     121.95    0.419     97.60        2.768 0.72 0.17
            7    401     671.47 0.083      60.98    0.419     77.95        0.964 0.72 0.17
            7    402    1016.69 0.033      91.46    0.419     77.95        1.586 0.72 0.17
            7    403     319.07 0.006     121.95    0.419     77.95        2.808 0.72 0.17
            7    404     566.75 0.015     121.95    0.419     77.95        2.200 0.72 0.17
            7    405    5128.85 0.090      60.98    0.419     77.95        1.653 0.72 0.17
            7    406    3227.26 0.035      91.46    0.419     77.95        1.924 0.72 0.17
            7    407     974.95 0.015     121.95    0.419     77.95        2.276 0.72 0.17
            7    408     447.50 0.007     121.95    0.419     77.95        2.711 0.72 0.17
            7    409     277.93 0.014     121.95    0.419     77.95        2.186 0.72 0.17
            7    410     168.98 0.105      60.98    0.419     77.95        0.807 0.72 0.17
            7    411    1205.66 0.004     121.95    0.419     77.95        3.327 0.72 0.17
            7    412     191.47 0.032      91.46    0.419     77.95        1.440 0.72 0.17
            7    413     163.87 0.005     121.95    0.419     77.95        2.929 0.72 0.17
            7    414     516.73 0.097      60.98    0.419     77.95        0.897 0.72 0.17
            7    415     282.90 0.034      91.46    0.419     77.95        1.434 0.72 0.17
            7    416     164.45 0.015     121.95    0.419     77.95        2.118 0.72 0.17
            7    417      56.96 0.004     121.95    0.419     77.95        3.103 0.72 0.17
            7    418     124.88 0.034      91.46    0.419     77.95        1.400 0.72 0.17
            7    419      58.28 0.015     121.95    0.419     77.95        2.093 0.72 0.17
            7    420     346.57 0.134      24.39    0.419     77.95        0.491 0.72 0.17
            7    421     141.67 0.034      91.46    0.419     77.95        1.404 0.72 0.17
            7    422      64.26 0.015     121.95    0.419     77.95        2.095 0.72 0.17
            7    423     321.90 0.132      24.39    0.419     77.95        0.487 0.72 0.17
            7    424      41.63 0.005     121.95    0.419     77.95        2.899 0.72 0.17
            8    425      23.40 0.015     121.95    0.038     61.43        0.494 0.75 0.40
            8    426      12.28 0.006     121.95    0.038     61.43        0.649 0.75 0.40
            8    427      76.13 0.035      91.46    0.038     61.43        0.327 0.75 0.40
            8    428    1014.56 0.233      15.24    0.038     61.43        0.118 0.75 0.40
            8    429     417.35 0.033      91.46    0.038     61.43        0.353 0.75 0.40
            8    430     896.10 0.155      24.39    0.038     61.43        0.143 0.75 0.40
            8    431     211.79 0.015     121.95    0.038     61.43        0.506 0.75 0.40
            8    432     114.27 0.007     121.95    0.038     61.43        0.627 0.75 0.40
            8    433    2116.67 0.169      18.29    0.038     61.43        0.183 0.75 0.40
            8    434      26.44 0.016     121.95    0.038     61.43        0.485 0.75 0.40
            8    435       8.67 0.005     121.95    0.038     61.43        0.685 0.75 0.40
            8    436     212.07 0.037      91.46    0.038     61.43        0.330 0.75 0.40
            8    437    1820.08 0.155      24.39    0.038     61.43        0.187 0.75 0.40
            8    438     323.74 0.036      91.46    0.038     61.43        0.339 0.75 0.40
            8    439      65.29 0.015     121.95    0.038     61.43        0.497 0.75 0.40
            8    440      27.59 0.006     121.95    0.038     61.43        0.650 0.75 0.40
            8    441     120.78 0.015     121.95    0.038     61.43        0.501 0.75 0.40
            8    442      51.13 0.006     121.95    0.038     61.43        0.652 0.75 0.40
            8    443     550.21 0.036      91.46    0.038     61.43        0.351 0.75 0.40
            8    444   40627.57 0.320       9.15    0.038     61.43        1.464 0.75 0.40
            8    445      37.21 0.015     121.95    0.038     61.43        0.495 0.75 0.40
            8    446     182.94 0.037      91.46    0.038     61.43        0.328 0.75 0.40
            8    447      29.09 0.005     121.95    0.038     61.43        0.686 0.75 0.40
            8    448   30429.26 0.402       9.15    0.038     61.43        1.143 0.75 0.40
            8    449      16.07 0.006     121.95    0.038     61.43        0.649 0.75 0.40
            8    450      31.38 0.016     121.95    0.038     61.43        0.485 0.75 0.40
            8    451   25939.42 0.358       9.15    0.038     61.43        1.001 0.75 0.40
            8    452     222.45 0.037      91.46    0.038     61.43        0.331 0.75 0.40
            8    453      47.58 0.037      91.46    0.038     97.27        0.320 0.75 0.40
            8    454    1587.02 0.243      15.24    0.038     97.27        0.145 0.75 0.40
            8    455       2.77 0.008     121.95    0.038     97.27        0.594 0.75 0.40
            8    456       7.59 0.015     121.95    0.038     97.27        0.493 0.75 0.40
            8    457      40.18 0.006     121.95    0.038     97.27        0.651 0.75 0.40
            8    458     312.18 0.034      91.46    0.038     97.27        0.344 0.75 0.40
            8    459     104.06 0.015     121.95    0.038     97.27        0.500 0.75 0.40
            8    460    4496.47 0.245      15.24    0.038     97.27        0.268 0.75 0.40
            8    461    1808.47 0.254       9.15    0.038     97.27        0.138 0.75 0.40
            8    462       8.15 0.005     121.95    0.038     97.27        0.685 0.75 0.40
            8    463     125.35 0.036      91.46    0.038     97.27        0.327 0.75 0.40
            8    464      22.22 0.015     121.95    0.038     97.27        0.494 0.75 0.40
            8    465    1761.64 0.239      15.24    0.038     61.43        0.153 0.75 0.40
            8    466      58.04 0.006     121.95    0.038     61.43        0.652 0.75 0.40
            8    467     136.21 0.035      91.46    0.038     61.43        0.331 0.75 0.40
            8    468      50.41 0.015     121.95    0.038     61.43        0.496 0.75 0.40
            8    469       8.42 0.016     121.95    0.038     61.43        0.483 0.75 0.40
            8    470      39.08 0.036      91.46    0.038     61.43        0.322 0.75 0.40
            8    471    1124.68 0.231      15.24    0.038     61.43        0.124 0.75 0.40
            8    472       1.45 0.007     121.95    0.038     61.43        0.618 0.75 0.40
            8    473      29.88 0.007     121.95    0.038     61.43        0.621 0.75 0.40
            8    474     223.33 0.035      91.46    0.038     61.43        0.336 0.75 0.40
            8    475      71.99 0.015     121.95    0.038     61.43        0.497 0.75 0.40
            8    476    3895.96 0.233      15.24    0.038     61.43        0.245 0.75 0.40
            9    477     845.01 0.036      91.46    0.038     61.43        0.384 0.75 0.40
            9    478    4599.76 0.127      24.39    0.038     61.43        0.389 0.75 0.40
            9    479      52.54 0.006     121.95    0.038     61.43        0.653 0.75 0.40
            9    480     142.54 0.016     121.95    0.038     61.43        0.496 0.75 0.40
            9    481       2.43 0.007     121.95    0.038     61.43        0.619 0.75 0.40
            9    482     137.16 0.038      91.46    0.038     61.43        0.327 0.75 0.40
            9    483    1209.16 0.140      24.39    0.038     61.43        0.186 0.75 0.40
            9    484      14.92 0.016     121.95    0.038     61.43        0.484 0.75 0.40
            9    485      48.75 0.005     121.95    0.038     61.43        0.689 0.75 0.40
            9    486      95.09 0.016     121.95    0.038     61.43        0.492 0.75 0.40
            9    487     605.83 0.037      91.46    0.038     61.43        0.365 0.75 0.40
            9    488   10211.85 0.203      15.24    0.038     61.43        0.648 0.75 0.40
            9    489   28251.68 0.408       9.15    0.038     61.43        1.459 0.75 0.40
            9    490     158.06 0.037      91.46    0.038     61.43        0.331 0.75 0.40
            9    491      20.32 0.016     121.95    0.038     61.43        0.485 0.75 0.40
            9    492       9.15 0.006     121.95    0.038     61.43        0.649 0.75 0.40
            9    493      22.09 0.006     121.95    0.038     61.43        0.650 0.75 0.40
            9    494      58.40 0.015     121.95    0.038     61.43        0.498 0.75 0.40
            9    495     362.97 0.037      91.46    0.038     61.43        0.347 0.75 0.40
            9    496   29335.63 0.327       9.15    0.038     61.43        1.509 0.75 0.40
            9    497     115.08 0.006     121.95    0.038     97.27        0.659 0.75 0.40
            9    498     278.96 0.016     121.95    0.038     97.27        0.507 0.75 0.40
            9    499    8177.83 0.132      24.39    0.038     97.27        0.578 0.75 0.40
            9    500    1637.87 0.036      91.46    0.038     97.27        0.436 0.75 0.40
            9    501     111.43 0.036      91.46    0.038     97.27        0.329 0.75 0.40
            9    502    1669.65 0.240      15.24    0.038     97.27        0.181 0.75 0.40
            9    503      17.33 0.016     121.95    0.038     97.27        0.485 0.75 0.40
            9    504       9.43 0.006     121.95    0.038     97.27        0.649 0.75 0.40
            9    505     100.83 0.006     121.95    0.038     65.45        0.658 0.75 0.40
            9    506     225.15 0.016     121.95    0.038     65.45        0.503 0.75 0.40
            9    507    1230.99 0.036      91.46    0.038     65.45        0.410 0.75 0.40
            9    508    3596.81 0.113      60.98    0.038     65.45        0.411 0.75 0.40
            9    509      86.57 0.006     121.95    0.038     61.43        0.656 0.75 0.40
            9    510    1358.02 0.037      91.46    0.038     61.43        0.415 0.75 0.40
            9    511    9235.02 0.136      24.39    0.038     61.43        0.631 0.75 0.40
            9    512     234.06 0.016     121.95    0.038     61.43        0.504 0.75 0.40
           10    513      48.19 0.005     121.95    0.251     75.36        2.138 0.10 0.05
           10    514     483.40 0.037      91.46    0.251     75.36        1.092 0.10 0.05
           10    515      81.55 0.015     121.95    0.251     75.36        1.550 0.10 0.05
           10    516    7948.72 0.186      18.29    0.251     75.36        1.530 0.10 0.05
           10    517    1130.69 0.036      91.46    0.251     75.36        1.224 0.10 0.05
           10    518    6273.96 0.150      24.39    0.251     75.36        1.348 0.10 0.05
           10    519      85.33 0.006     121.95    0.251     75.36        2.034 0.10 0.05
           10    520     218.23 0.015     121.95    0.251     75.36        1.583 0.10 0.05
           10    521     227.86 0.006     121.95    0.251     75.36        2.068 0.10 0.05
           10    522   16433.13 0.161      18.29    0.251     75.36        2.695 0.10 0.05
           10    523    1913.84 0.036      91.46    0.251     75.36        1.362 0.10 0.05
           10    524     449.12 0.015     121.95    0.251     75.36        1.632 0.10 0.05
           10    525      11.10 0.016     121.95    0.251     75.36        1.502 0.10 0.05
           10    526      78.77 0.036      91.46    0.251     75.36        1.011 0.10 0.05
           10    527     923.82 0.198      18.29    0.251     75.36        0.423 0.10 0.05
           10    528       6.53 0.006     121.95    0.251     75.36        2.012 0.10 0.05
           10    529      17.12 0.006     121.95    0.251     75.36        2.016 0.10 0.05
           10    530      46.50 0.015     121.95    0.251     75.36        1.541 0.10 0.05
           10    531     196.05 0.036      91.46    0.251     75.36        1.039 0.10 0.05
           10    532    1348.60 0.193      18.29    0.251     75.36        0.503 0.10 0.05
           10    533     155.16 0.036      91.46    0.251     75.36        1.029 0.10 0.05
           10    534    1196.29 0.190      18.29    0.251     75.36        0.476 0.10 0.05
           10    535      10.71 0.007     121.95    0.251     75.36        1.923 0.10 0.05
           10    536      29.92 0.015     121.95    0.251     75.36        1.537 0.10 0.05
           10    537      25.74 0.036      91.46    0.251     75.36        0.997 0.10 0.05
           10    538    1463.79 0.330       9.15    0.251     75.36        0.423 0.10 0.05
           10    539       2.09 0.006     121.95    0.251     75.36        2.011 0.10 0.05
           10    540       5.35 0.015     121.95    0.251     75.36        1.529 0.10 0.05
           10    541     796.84 0.037      91.46    0.251     75.36        1.154 0.10 0.05
           10    542     144.38 0.015     121.95    0.251     75.36        1.566 0.10 0.05
           10    543     177.80 0.003     121.95    0.251     75.36        2.521 0.10 0.05
           10    544   43432.70 0.289       9.15    0.251     75.36        5.878 0.10 0.05
           10    545     765.82 0.036      91.46    0.251     75.36        1.156 0.10 0.05
           10    546     151.60 0.015     121.95    0.251     75.36        1.567 0.10 0.05
           10    547      60.23 0.007     121.95    0.251     75.36        1.937 0.10 0.05
           10    548   21595.29 0.244      15.24    0.251     75.36        3.307 0.10 0.05
           10    549   79074.02 0.362       9.15    0.251     75.36        9.830 0.10 0.05
           10    550     166.06 0.016     121.95    0.251     75.36        1.542 0.10 0.05
           10    551     946.89 0.037      91.46    0.251     75.36        1.182 0.10 0.05
           10    552      82.75 0.005     121.95    0.251     75.36        2.147 0.10 0.05
           10    553      56.59 0.015     121.95    0.251     97.55        1.544 0.10 0.05
           10    554     295.65 0.037      91.46    0.251     97.55        1.053 0.10 0.05
           10    555    6305.52 0.221      15.24    0.251     97.55        1.257 0.10 0.05
           10    556      36.55 0.004     121.95    0.251     97.55        2.281 0.10 0.05
           10    557     486.65 0.036      91.46    0.251     97.55        1.101 0.10 0.05
           10    558     124.23 0.015     121.95    0.251     97.55        1.561 0.10 0.05
           10    559      65.53 0.005     121.95    0.251     97.55        2.142 0.10 0.05
           10    560    4102.85 0.207      15.24    0.251     97.55        0.928 0.10 0.05
           10    561     197.06 0.036      91.46    0.251     97.55        1.039 0.10 0.05
           10    562      46.13 0.016     121.95    0.251     97.55        1.512 0.10 0.05
           10    563    4189.49 0.291       9.15    0.251     97.55        0.875 0.10 0.05
           10    564      16.85 0.006     121.95    0.251     97.55        2.016 0.10 0.05
           10    565      89.06 0.037      91.46    0.251     77.85        1.005 0.10 0.05
           10    566       6.73 0.006     121.95    0.251     77.85        2.012 0.10 0.05
           10    567      14.76 0.016     121.95    0.251     77.85        1.503 0.10 0.05
           10    568     958.26 0.178      18.29    0.251     77.85        0.437 0.10 0.05
           10    569      47.72 0.005     121.95    0.251     77.85        2.138 0.10 0.05
           10    570     180.26 0.035      91.46    0.251     77.85        1.044 0.10 0.05
           10    571      61.68 0.015     121.95    0.251     77.85        1.545 0.10 0.05
           10    572     532.65 0.128      24.39    0.251     77.85        0.428 0.10 0.05
           10    573      61.68 0.015     121.95    0.251     77.85        1.545 0.10 0.05
           10    574      33.90 0.005     121.95    0.251     77.85        2.134 0.10 0.05
           10    575     186.99 0.034      91.46    0.251     77.85        1.054 0.10 0.05
           10    576     357.70 0.106      60.98    0.251     77.85        0.646 0.10 0.05
           10    577      58.11 0.005     121.95    0.251     77.85        2.140 0.10 0.05
           10    578    1308.39 0.160      24.39    0.251     77.85        0.554 0.10 0.05
           10    579      96.41 0.015     121.95    0.251     77.85        1.554 0.10 0.05
           10    580     340.45 0.035      91.46    0.251     77.85        1.079 0.10 0.05
           10    581     881.48 0.232      15.24    0.251     77.85        0.383 0.10 0.05
           10    582     100.88 0.036      91.46    0.251     77.85        1.016 0.10 0.05
           10    583      22.08 0.016     121.95    0.251     77.85        1.505 0.10 0.05
           10    584       7.69 0.006     121.95    0.251     77.85        2.013 0.10 0.05
           10    585      88.74 0.004     121.95    0.251     75.36        2.295 0.10 0.05
           10    586     120.43 0.015     121.95    0.251     75.36        1.560 0.10 0.05
           10    587     740.00 0.037      91.46    0.251     75.36        1.143 0.10 0.05
           10    588   16719.45 0.208      15.24    0.251     75.36        2.691 0.10 0.05
           10    589      94.59 0.006     121.95    0.251     75.36        2.037 0.10 0.05
           10    590    9558.46 0.184      18.29    0.251     75.36        1.758 0.10 0.05
           10    591     890.35 0.036      91.46    0.251     75.36        1.179 0.10 0.05
           10    592     195.51 0.015     121.95    0.251     75.36        1.578 0.10 0.05
           10    593      28.27 0.005     121.95    0.251     75.36        2.132 0.10 0.05
           10    594    7418.92 0.288       9.15    0.251     75.36        1.357 0.10 0.05
           10    595      42.10 0.015     121.95    0.251     75.36        1.540 0.10 0.05
           10    596     261.19 0.036      91.46    0.251     75.36        1.053 0.10 0.05
           11    597    1336.47 0.037      91.46    0.247     77.92        1.143 0.22 0.29
           11    598    8888.65 0.126      24.39    0.247     77.92        1.210 0.22 0.29
           11    599     127.15 0.005     121.95    0.247     77.92        2.124 0.22 0.29
           11    600     214.43 0.016     121.95    0.247     77.92        1.518 0.22 0.29
           11    601     252.40 0.006     121.95    0.247     77.92        2.031 0.22 0.29
           11    602    2891.59 0.036      91.46    0.247     77.92        1.318 0.22 0.29
           11    603   13801.47 0.128      24.39    0.247     77.92        1.634 0.22 0.29
           11    604     534.87 0.015     121.95    0.247     77.92        1.590 0.22 0.29
           11    605     395.47 0.006     121.95    0.247     77.92        2.050 0.22 0.29
           11    606     612.71 0.015     121.95    0.247     77.92        1.599 0.22 0.29
           11    607    2087.53 0.035      91.46    0.247     77.92        1.242 0.22 0.29
           11    608    6615.20 0.139      24.39    0.247     77.92        0.995 0.22 0.29
           11    609     128.52 0.016     121.95    0.247     77.92        1.505 0.22 0.29
           11    610      70.59 0.005     121.95    0.247     77.92        2.116 0.22 0.29
           11    611   55712.09 0.341       9.15    0.247     77.92        4.639 0.22 0.29
           11    612     744.21 0.037      91.46    0.247     77.92        1.074 0.22 0.29
           11    613     979.99 0.036      91.46    0.247     77.92        1.110 0.22 0.29
           11    614   26465.84 0.296       9.15    0.247     77.92        2.484 0.22 0.29
           11    615     216.76 0.015     121.95    0.247     77.92        1.547 0.22 0.29
           11    616     137.34 0.006     121.95    0.247     77.92        2.014 0.22 0.29
           11    617     901.97 0.185      18.29    0.247     77.92        0.350 0.22 0.29
           11    618    8805.25 0.001     121.95    0.247     77.92        4.306 0.22 0.29
           11    619     588.55 0.032      91.46    0.247     77.92        1.098 0.22 0.29
           11    620     443.37 0.015     121.95    0.247     77.92        1.578 0.22 0.29
           11    621    4901.21 0.123      24.39    0.247     97.60        0.844 0.22 0.29
           11    622     202.94 0.015     121.95    0.247     97.60        1.545 0.22 0.29
           11    623     114.90 0.005     121.95    0.247     97.60        2.123 0.22 0.29
           11    624    1038.50 0.036      91.46    0.247     97.60        1.117 0.22 0.29
           11    625     807.25 0.036      91.46    0.247     97.60        1.090 0.22 0.29
           11    626     146.32 0.015     121.95    0.247     97.60        1.537 0.22 0.29
           11    627    3821.53 0.131      24.39    0.247     97.60        0.733 0.22 0.29
           11    628      77.63 0.005     121.95    0.247     97.60        2.117 0.22 0.29
           11    629      41.51 0.005     121.95    0.247     97.60        2.111 0.22 0.29
           11    630      60.54 0.015     121.95    0.247     97.60        1.524 0.22 0.29
           11    631    2590.16 0.293       9.15    0.247     97.60        0.439 0.22 0.29
           11    632     228.99 0.034      91.46    0.247     97.60        1.032 0.22 0.29
           11    633    1966.33 0.177      18.29    0.247     97.60        0.473 0.22 0.29
           11    634     479.46 0.035      91.46    0.247     97.60        1.057 0.22 0.29
           11    635     144.36 0.015     121.95    0.247     97.60        1.537 0.22 0.29
           11    636      86.59 0.006     121.95    0.247     97.60        2.006 0.22 0.29
           11    637     125.85 0.016     121.95    0.247     80.13        1.505 0.22 0.29
           11    638    1893.09 0.112      60.98    0.247     80.13        0.780 0.22 0.29
           11    639     585.78 0.035      91.46    0.247     80.13        1.071 0.22 0.29
           11    640      68.32 0.005     121.95    0.247     80.13        2.115 0.22 0.29
           11    641      60.49 0.006     121.95    0.247     80.13        2.002 0.22 0.29
           11    642     120.81 0.015     121.95    0.247     80.13        1.533 0.22 0.29
           11    643     485.13 0.035      91.46    0.247     80.13        1.058 0.22 0.29
           11    644     672.35 0.086      60.98    0.247     80.13        0.685 0.22 0.29
           11    645     974.98 0.122      24.39    0.247     80.13        0.438 0.22 0.29
           11    646     225.10 0.036      91.46    0.247     80.13        1.015 0.22 0.29
           11    647      36.85 0.016     121.95    0.247     80.13        1.491 0.22 0.29
           11    648      25.90 0.005     121.95    0.247     80.13        2.108 0.22 0.29
           11    649     604.73 0.036      91.46    0.247     77.92        1.065 0.22 0.29
           11    650    4806.95 0.139      24.39    0.247     77.92        0.824 0.22 0.29
           11    651     155.95 0.003     121.95    0.247     77.92        2.477 0.22 0.29
           11    652     133.43 0.015     121.95    0.247     77.92        1.535 0.22 0.29
           11    653     535.48 0.036      91.46    0.247     77.92        1.056 0.22 0.29
           11    654      74.46 0.005     121.95    0.247     77.92        2.116 0.22 0.29
           11    655    2864.94 0.152      24.39    0.247     77.92        0.624 0.22 0.29
           11    656     121.52 0.015     121.95    0.247     77.92        1.533 0.22 0.29
           11    657      49.22 0.003     121.95    0.247     77.92        2.460 0.22 0.29
           11    658      53.37 0.015     121.95    0.247     77.92        1.522 0.22 0.29
           11    659    2312.34 0.231      15.24    0.247     77.92        0.470 0.22 0.29
           11    660     200.31 0.035      91.46    0.247     77.92        1.020 0.22 0.29
           11    661      78.96 0.015     121.95    0.247     77.92        1.527 0.22 0.29
           11    662    2238.05 0.187      18.29    0.247     77.92        0.498 0.22 0.29
           11    663      40.39 0.006     121.95    0.247     77.92        1.999 0.22 0.29
           11    664     267.21 0.035      91.46    0.247     77.92        1.029 0.22 0.29
           12    665     153.59 0.015     121.95    0.376     86.48        1.977 0.53 0.22
           12    666      70.49 0.006     121.95    0.376     86.48        2.577 0.53 0.22
           12    667   10685.51 0.174      18.29    0.376     86.48        1.568 0.53 0.22
           12    668     845.10 0.036      91.46    0.376     86.48        1.397 0.53 0.22
           12    669     860.76 0.015     121.95    0.376     86.48        2.086 0.53 0.22
           12    670     444.49 0.006     121.95    0.376     86.48        2.640 0.53 0.22
           12    671    3835.31 0.036      91.46    0.376     86.48        1.777 0.53 0.22
           12    672   54837.10 0.197      18.29    0.376     86.48        5.598 0.53 0.22
           12    673   13795.08 0.220      15.24    0.376     86.48        1.837 0.53 0.22
           12    674     824.30 0.036      91.46    0.376     86.48        1.394 0.53 0.22
           12    675     150.03 0.006     121.95    0.376     86.48        2.592 0.53 0.22
           12    676     195.34 0.015     121.95    0.376     86.48        1.984 0.53 0.22
           12    677     307.08 0.003     121.95    0.376     86.48        3.210 0.53 0.22
           12    678    1620.22 0.037      91.46    0.376     86.48        1.492 0.53 0.22
           12    679     292.68 0.015     121.95    0.376     86.48        2.000 0.53 0.22
           12    680   61906.49 0.246      15.24    0.376     86.48        6.146 0.53 0.22
           12    681     303.52 0.006     121.95    0.376     86.48        2.618 0.53 0.22
           12    682     495.20 0.015     121.95    0.376     86.48        2.032 0.53 0.22
           12    683    2197.25 0.036      91.46    0.376     86.48        1.577 0.53 0.22
           12    684  105873.59 0.316       9.15    0.376     86.48        9.608 0.53 0.22
           12    685    2112.21 0.037      91.46    0.376     86.48        1.556 0.53 0.22
           12    686  160496.92 0.348       9.15    0.376     86.48       13.751 0.53 0.22
           12    687     384.79 0.015     121.95    0.376     86.48        2.015 0.53 0.22
           12    688     206.23 0.006     121.95    0.376     86.48        2.601 0.53 0.22
           12    689    1102.59 0.277       9.15    0.376     86.48        0.345 0.53 0.22
           12    690     737.59 0.001     121.95    0.376     86.48        4.507 0.53 0.22
           12    691      68.35 0.015     121.95    0.376     86.48        1.961 0.53 0.22
           12    692     142.71 0.034      91.46    0.376     86.48        1.310 0.53 0.22
           12    693     454.51 0.033      91.46    0.376     86.48        1.372 0.53 0.22
           12    694    6120.54 0.001     121.95    0.376     86.48        5.164 0.53 0.22
           12    695    1873.39 0.226      15.24    0.376     86.48        0.524 0.53 0.22
           12    696     324.27 0.014     121.95    0.376     86.48        2.046 0.53 0.22
           12    697     119.67 0.015     121.95    0.376     97.77        1.971 0.53 0.22
           12    698      74.00 0.005     121.95    0.376     97.77        2.722 0.53 0.22
           12    699     635.06 0.036      91.46    0.376     97.77        1.366 0.53 0.22
           12    700    9588.41 0.197      18.29    0.376     97.77        1.443 0.53 0.22
           12    701     261.61 0.015     121.95    0.376     97.77        1.995 0.53 0.22
           12    702    1228.16 0.036      91.46    0.376     97.77        1.450 0.53 0.22
           12    703   12551.77 0.209      15.24    0.376     97.77        1.715 0.53 0.22
           12    704     125.62 0.006     121.95    0.376     97.77        2.587 0.53 0.22
           12    705     423.34 0.036      91.46    0.376     97.77        1.334 0.53 0.22
           12    706    9335.34 0.316       9.15    0.376     97.77        1.293 0.53 0.22
           12    707      41.75 0.006     121.95    0.376     97.77        2.571 0.53 0.22
           12    708      89.31 0.015     121.95    0.376     97.77        1.965 0.53 0.22
           12    709     128.06 0.004     121.95    0.376     86.48        2.919 0.53 0.22
           12    710     168.24 0.015     121.95    0.376     86.48        1.979 0.53 0.22
           12    711    1000.37 0.037      91.46    0.376     86.48        1.409 0.53 0.22
           12    712   18435.42 0.194      18.29    0.376     86.48        2.335 0.53 0.22
           12    713     114.94 0.015     121.95    0.376     86.48        1.970 0.53 0.22
           12    714     605.15 0.036      91.46    0.376     86.48        1.362 0.53 0.22
           12    715    8355.01 0.208      15.24    0.376     86.48        1.278 0.53 0.22
           12    716      83.61 0.004     121.95    0.376     86.48        2.911 0.53 0.22
           12    717     737.79 0.036      91.46    0.376     86.48        1.381 0.53 0.22
           12    718     181.51 0.015     121.95    0.376     86.48        1.982 0.53 0.22
           12    719   10454.82 0.223      15.24    0.376     86.48        1.494 0.53 0.22
           12    720     108.12 0.006     121.95    0.376     86.48        2.584 0.53 0.22
           13    721   30305.11 0.113      60.98    0.451     43.84        2.822 0.22 0.35
           13    722    1608.40 0.015     121.95    0.451     43.84        2.326 0.22 0.35
           13    723    7248.59 0.036      91.46    0.451     43.84        1.988 0.22 0.35
           13    724     836.97 0.006     121.95    0.451     43.84        2.945 0.22 0.35
           13    725    2987.05 0.015     121.95    0.451     43.84        2.439 0.22 0.35
           13    726   27167.22 0.129      24.39    0.451     43.84        2.288 0.22 0.35
           13    727    8903.22 0.035      91.46    0.451     43.84        2.115 0.22 0.35
           13    728    2224.33 0.006     121.95    0.451     43.84        3.064 0.22 0.35
           13    729      84.88 0.006     121.95    0.451     43.84        2.868 0.22 0.35
           13    730  100977.12 0.383       9.15    0.451     43.84        6.023 0.22 0.35
           13    731     821.84 0.035      91.46    0.451     43.84        1.503 0.22 0.35
           13    732     236.40 0.015     121.95    0.451     43.84        2.199 0.22 0.35
           13    733      89.76 0.015     121.95    0.451     43.84        2.183 0.22 0.35
           13    734   83712.27 0.387       9.15    0.451     43.84        5.137 0.22 0.35
           13    735     575.96 0.037      91.46    0.451     43.84        1.456 0.22 0.35
           13    736      45.63 0.006     121.95    0.451     43.84        2.864 0.22 0.35
           13    737     390.52 0.037      91.46    0.451     43.84        1.438 0.22 0.35
           13    738   91067.09 0.455       9.15    0.451     43.84        5.509 0.22 0.35
           13    739      41.44 0.005     121.95    0.451     43.84        3.024 0.22 0.35
           13    740      63.04 0.015     121.95    0.451     43.84        2.179 0.22 0.35
           13    741    4122.83 0.036      91.46    0.451     96.92        1.760 0.22 0.35
           13    742     836.79 0.015     121.95    0.451     96.92        2.258 0.22 0.35
           13    743   17094.36 0.117      60.98    0.451     96.92        2.009 0.22 0.35
           13    744     350.63 0.006     121.95    0.451     96.92        2.898 0.22 0.35
           13    745    8929.34 0.148      24.39    0.451     96.92        1.116 0.22 0.35
           13    746    2827.69 0.035      91.46    0.451     96.92        1.672 0.22 0.35
           13    747     466.24 0.006     121.95    0.451     96.92        2.909 0.22 0.35
           13    748     786.42 0.015     121.95    0.451     96.92        2.254 0.22 0.35
           13    749   39131.15 0.121      24.39    0.451     43.84        2.994 0.22 0.35
           13    750    8018.74 0.036      91.46    0.451     43.84        2.042 0.22 0.35
           13    751    1472.65 0.015     121.95    0.451     43.84        2.315 0.22 0.35
           13    752     624.10 0.006     121.95    0.451     43.84        2.925 0.22 0.35
           13    753     433.05 0.015     121.95    0.451     43.84        2.220 0.22 0.35
           13    754    1806.51 0.036      91.46    0.451     43.84        1.577 0.22 0.35
           13    755   11189.73 0.160      18.29    0.451     43.84        1.195 0.22 0.35
           13    756     314.71 0.005     121.95    0.451     43.84        3.055 0.22 0.35
           14    757     904.21 0.078      60.98    0.419     77.95        0.907 0.72 0.17
           14    758    1474.35 0.033      91.46    0.419     77.95        1.489 0.72 0.17
           14    759     671.21 0.015     121.95    0.419     77.95        2.132 0.72 0.17
           14    760     371.46 0.007     121.95    0.419     77.95        2.643 0.72 0.17
           14    761    1114.18 0.005     121.95    0.419     77.95        2.973 0.72 0.17
           14    762     562.08 0.014     121.95    0.419     77.95        2.167 0.72 0.17
           14    763     203.67 0.076      60.98    0.419     77.95        0.861 0.72 0.17
           14    764     520.84 0.031      91.46    0.419     77.95        1.450 0.72 0.17
           14    765     538.12 0.006     121.95    0.419     77.95        2.779 0.72 0.17
           14    766     713.01 0.015     121.95    0.419     77.95        2.135 0.72 0.17
           14    767    1430.22 0.033      91.46    0.419     77.95        1.486 0.72 0.17
           14    768     668.53 0.071      60.98    0.419     77.95        0.914 0.72 0.17
           14    769    1114.70 0.034      91.46    0.419     77.95        1.453 0.72 0.17
           14    770     981.33 0.079      60.98    0.419     77.95        0.909 0.72 0.17
           14    771     359.34 0.015     121.95    0.419     77.95        2.108 0.72 0.17
           14    772     186.87 0.006     121.95    0.419     77.95        2.751 0.72 0.17
           14    773     507.41 0.015     121.95    0.419     77.95        2.120 0.72 0.17
           14    774     260.47 0.006     121.95    0.419     77.95        2.757 0.72 0.17
           14    775    2056.40 0.126      24.39    0.419     77.95        0.565 0.72 0.17
           14    776    1169.33 0.033      91.46    0.419     77.95        1.469 0.72 0.17
           14    777      71.81 0.007     121.95    0.419     77.95        2.618 0.72 0.17
           14    778     166.21 0.015     121.95    0.419     77.95        2.093 0.72 0.17
           14    779     521.94 0.034      91.46    0.419     77.95        1.411 0.72 0.17
           14    780     604.15 0.089      60.98    0.419     77.95        0.853 0.72 0.17
           14    781    3660.61 0.015     121.95    0.419     77.95        2.321 0.72 0.17
           14    782   14500.76 0.036      91.46    0.419     77.95        2.159 0.72 0.17
           14    783    2212.39 0.006     121.95    0.419     77.95        2.890 0.72 0.17
           14    784   45884.09 0.102      60.98    0.419     77.95        3.004 0.72 0.17
           14    785    2304.44 0.015     121.95    0.419     77.95        2.239 0.72 0.17
           14    786    1126.30 0.006     121.95    0.419     77.95        2.820 0.72 0.17
           14    787   11230.04 0.036      91.46    0.419     77.95        1.995 0.72 0.17
           14    788   28120.76 0.096      60.98    0.419     77.95        2.240 0.72 0.17
           14    789     833.19 0.006     121.95    0.419     77.95        2.800 0.72 0.17
           14    790    1917.39 0.015     121.95    0.419     77.95        2.215 0.72 0.17
           14    791    8989.18 0.036      91.46    0.419     77.95        1.880 0.72 0.17
           14    792   99230.02 0.173      18.29    0.419     77.95        4.705 0.72 0.17
           14    793     281.92 0.033      91.46    0.419     77.95        1.405 0.72 0.17
           14    794     311.87 0.014     121.95    0.419     77.95        2.148 0.72 0.17
           14    795     382.13 0.136      24.39    0.419     77.95        0.442 0.72 0.17
           14    796   25098.66 0.000     121.95    0.419     77.95       10.652 0.72 0.17
           14    797    2518.23 0.087      60.98    0.419     97.60        0.985 0.72 0.17
           14    798    1700.57 0.035      91.46    0.419     97.60        1.480 0.72 0.17
           14    799     243.77 0.006     121.95    0.419     97.60        2.756 0.72 0.17
           14    800     524.73 0.015     121.95    0.419     97.60        2.121 0.72 0.17
           14    801    2679.86 0.035      91.46    0.419     97.60        1.541 0.72 0.17
           14    802    3513.30 0.085      60.98    0.419     97.60        1.050 0.72 0.17
           14    803     643.74 0.015     121.95    0.419     97.60        2.130 0.72 0.17
           14    804     330.29 0.006     121.95    0.419     97.60        2.763 0.72 0.17
           14    805    1980.14 0.125      24.39    0.419     97.60        0.561 0.72 0.17
           14    806     909.27 0.034      91.46    0.419     97.60        1.439 0.72 0.17
           14    807     120.39 0.006     121.95    0.419     97.60        2.746 0.72 0.17
           14    808     284.29 0.015     121.95    0.419     97.60        2.102 0.72 0.17
           14    809    1124.71 0.036      91.46    0.419     77.95        1.431 0.72 0.17
           14    810    4799.78 0.101      60.98    0.419     77.95        1.083 0.72 0.17
           14    811      80.42 0.006     121.95    0.419     77.95        2.742 0.72 0.17
           14    812     191.17 0.016     121.95    0.419     77.95        2.055 0.72 0.17
           14    813      44.44 0.015     121.95    0.419     77.95        2.081 0.72 0.17
           14    814      19.73 0.006     121.95    0.419     77.95        2.736 0.72 0.17
           14    815     210.17 0.036      91.46    0.419     77.95        1.364 0.72 0.17
           14    816    1557.87 0.144      24.39    0.419     77.95        0.517 0.72 0.17
           14    817      19.45 0.007     121.95    0.419     77.95        2.612 0.72 0.17
           14    818      38.90 0.015     121.95    0.419     77.95        2.081 0.72 0.17
           14    819     213.51 0.036      91.46    0.419     77.95        1.364 0.72 0.17
           14    820    2450.17 0.164      18.29    0.419     77.95        0.497 0.72 0.17
           14    821    7694.60 0.085      60.98    0.419     77.95        1.282 0.72 0.17
           14    822    6053.63 0.035      91.46    0.419     77.95        1.734 0.72 0.17
[...]
           54   3913     311.17       479.794         0.531      0.000   0.151        1.000  0.079    0.000     0.000
           54   3914    1594.43       479.794         0.531      0.000   0.151        1.000  0.079    0.000     0.000
           54   3915    4140.92       479.794         0.531      0.000   0.151        1.000  0.079    0.000     0.000
           54   3916   33386.14       479.794         0.531      0.000   0.151        1.000  0.079    0.000     0.000
           54   3917     424.37       479.794         0.531      0.000   0.151        1.000  0.079    0.000     0.000
           54   3918     871.09       479.794         0.531      0.000   0.151        1.000  0.079    0.000     0.000
           54   3919    2707.99       479.794         0.531      0.000   0.151        1.000  0.079    0.000     0.000
           54   3920     427.47       479.794         0.531      0.000   0.151        1.000  0.079    0.000     0.000
           54   3921     946.93       479.794         0.531      0.000   0.151        1.000  0.079    0.000     0.000
           54   3922    5329.75       479.794         0.531      0.000   0.151        1.000  0.079    0.000     0.000
           54   3923    6765.54       479.794         0.531      0.000   0.151        1.000  0.079    0.000     0.000
           54   3924    2519.56       479.794         0.531      0.000   0.151        1.000  0.079    0.000     0.000
           54   3925    1245.15       479.794         0.531      0.000   0.151        1.000  0.079    0.000     0.000
           54   3926    5894.46       479.794         0.531      0.000   0.151        1.000  0.079    0.000     0.000
           54   3927     551.90       479.794         0.531      0.000   0.151        1.000  0.079    0.000     0.000
           54   3928    1155.19       479.794         0.531      0.000   0.151        1.000  0.079    0.000     0.000
           54   3929    3559.77       479.794         0.531      0.000   0.151        1.000  0.079    0.000     0.000
           54   3930    8158.85       479.794         0.531      0.000   0.151        1.000  0.079    0.000     0.000
           55   3931     570.37        27.218         0.611      0.000   0.063        1.000  0.215    0.000     0.000
           55   3932     158.41        27.218         0.611      0.000   0.063        1.000  0.215    0.000     0.000
           55   3933     871.50        27.218         0.611      0.000   0.063        1.000  0.215    0.000     0.000
           55   3934     647.95        27.218         0.611      0.000   0.063        1.000  0.215    0.000     0.000
           55   3935     436.43        27.218         0.611      0.000   0.063        1.000  0.215    0.000     0.000
           55   3936     230.78        27.218         0.611      0.000   0.063        1.000  0.215    0.000     0.000
           55   3937     341.80        27.218         0.611      0.000   0.063        1.000  0.215    0.000     0.000
           55   3938     464.42        27.218         0.611      0.000   0.063        1.000  0.215    0.000     0.000
           55   3939     644.20        27.218         0.611      0.000   0.063        1.000  0.215    0.000     0.000
           55   3940    1534.15        27.218         0.611      0.000   0.063        1.000  0.215    0.000     0.000
           55   3941    1459.43        27.218         0.611      0.000   0.063        1.000  0.215    0.000     0.000
           55   3942    3169.04        27.218         0.611      0.000   0.063        1.000  0.215    0.000     0.000
           55   3943    2327.41        27.218         0.611      0.000   0.063        1.000  0.215    0.000     0.000
           55   3944    1164.32        27.218         0.611      0.000   0.063        1.000  0.215    0.000     0.000
           55   3945    1522.97        27.218         0.611      0.000   0.063        1.000  0.215    0.000     0.000
           55   3946     347.20        27.218         0.611      0.000   0.063        1.000  0.215    0.000     0.000
           55   3947     598.97        27.218         0.611      0.000   0.063        1.000  0.215    0.000     0.000
           55   3948     882.58        27.218         0.611      0.000   0.063        1.000  0.215    0.000     0.000
           55   3949     966.83        27.218         0.611      0.000   0.063        1.000  0.215    0.000     0.000
           55   3950     670.73        27.218         0.611      0.000   0.063        1.000  0.215    0.000     0.000
           55   3951    5212.37        27.218         0.611      0.000   0.063        1.000  0.215    0.000     0.000
           55   3952    1015.02        27.218         0.611      0.000   0.063        1.000  0.215    0.000     0.000
           55   3953    2351.08        27.218         0.611      0.000   0.063        1.000  0.215    0.000     0.000
           55   3954    2443.60        27.218         0.611      0.000   0.063        1.000  0.215    0.000     0.000
           55   3955     274.97        27.218         0.611      0.000   0.063        1.000  0.215    0.000     0.000
           55   3956     187.43        27.218         0.611      0.000   0.063        1.000  0.215    0.000     0.000
           55   3957     600.61        27.218         0.611      0.000   0.063        1.000  0.215    0.000     0.000
           55   3958     732.91        27.218         0.611      0.000   0.063        1.000  0.215    0.000     0.000
           55   3959    4647.49        27.218         0.611      0.000   0.063        1.000  0.215    0.000     0.000
           55   3960    2470.41        27.218         0.611      0.000   0.063        1.000  0.215    0.000     0.000
           55   3961     746.34        27.218         0.611      0.000   0.063        1.000  0.215    0.000     0.000
           55   3962    1864.82        27.218         0.611      0.000   0.063        1.000  0.215    0.000     0.000
           55   3963     200.67        27.218         0.611      0.000   0.063        1.000  0.215    0.000     0.000
           55   3964    4350.83        27.218         0.611      0.000   0.063        1.000  0.215    0.000     0.000
           55   3965     254.02        27.218         0.611      0.000   0.063        1.000  0.215    0.000     0.000
           55   3966    1106.55        27.218         0.611      0.000   0.063        1.000  0.215    0.000     0.000
           55   3967    8082.77        27.218         0.611      0.000   0.063        1.000  0.215    0.000     0.000
           55   3968    5913.67        27.218         0.611      0.000   0.063        1.000  0.215    0.000     0.000
           55   3969    1685.52        27.218         0.611      0.000   0.063        1.000  0.215    0.000     0.000
           55   3970     703.42        27.218         0.611      0.000   0.063        1.000  0.215    0.000     0.000
           55   3971   56678.48        27.218         0.611      0.000   0.063        1.000  0.215    0.000     0.000
           55   3972    1439.29        27.218         0.611      0.000   0.063        1.000  0.215    0.000     0.000
           55   3973    5889.02        27.218         0.611      0.000   0.063        1.000  0.215    0.000     0.000
           55   3974    1525.51        27.218         0.611      0.000   0.063        1.000  0.215    0.000     0.000
           55   3975   24624.44        27.218         0.611      0.000   0.063        1.000  0.215    0.000     0.000
           55   3976    2921.17        27.218         0.611      0.000   0.063        1.000  0.215    0.000     0.000
           55   3977    6855.10        27.218         0.611      0.000   0.063        1.000  0.215    0.000     0.000
           55   3978   48792.91        27.218         0.611      0.000   0.063        1.000  0.215    0.000     0.000
           55   3979   45771.00        27.218         0.611      0.000   0.063        1.000  0.215    0.000     0.000
           55   3980     396.28        27.218         0.611      0.000   0.063        1.000  0.215    0.000     0.000
           55   3981     508.71        27.218         0.611      0.000   0.063        1.000  0.215    0.000     0.000
           55   3982    1469.01        27.218         0.611      0.000   0.063        1.000  0.215    0.000     0.000
           55   3983   26593.80        27.218         0.611      0.000   0.063        1.000  0.215    0.000     0.000
           55   3984     258.82        27.218         0.611      0.000   0.063        1.000  0.215    0.000     0.000
           55   3985     649.60        27.218         0.611      0.000   0.063        1.000  0.215    0.000     0.000
           55   3986     474.71        27.218         0.611      0.000   0.063        1.000  0.215    0.000     0.000
           55   3987    1108.19        27.218         0.611      0.000   0.063        1.000  0.215    0.000     0.000
           55   3988     537.78        27.218         0.611      0.000   0.063        1.000  0.215    0.000     0.000
           55   3989     510.87        27.218         0.611      0.000   0.063        1.000  0.215    0.000     0.000
           55   3990     845.58        27.218         0.611      0.000   0.063        1.000  0.215    0.000     0.000
           55   3991     261.87        27.218         0.611      0.000   0.063        1.000  0.215    0.000     0.000
           55   3992    1103.59        27.218         0.611      0.000   0.063        1.000  0.215    0.000     0.000
           55   3993     378.15        27.218         0.611      0.000   0.063        1.000  0.215    0.000     0.000
           55   3994    1695.57        27.218         0.611      0.000   0.063        1.000  0.215    0.000     0.000
           55   3995    7417.21        27.218         0.611      0.000   0.063        1.000  0.215    0.000     0.000
           55   3996    2942.91        27.218         0.611      0.000   0.063        1.000  0.215    0.000     0.000
           55   3997    4574.70        27.218         0.611      0.000   0.063        1.000  0.215    0.000     0.000
           55   3998    1341.70        27.218         0.611      0.000   0.063        1.000  0.215    0.000     0.000
           55   3999    1280.97        27.218         0.611      0.000   0.063        1.000  0.215    0.000     0.000
           55   4000     409.14        27.218         0.611      0.000   0.063        1.000  0.215    0.000     0.000
           55   4001     599.63        27.218         0.611      0.000   0.063        1.000  0.215    0.000     0.000
           55   4002     345.60        27.218         0.611      0.000   0.063        1.000  0.215    0.000     0.000
           55   4003     287.04        27.218         0.611      0.000   0.063        1.000  0.215    0.000     0.000
           55   4004     205.46        27.218         0.611      0.000   0.063        1.000  0.215    0.000     0.000
           55   4005    1081.19        27.218         0.611      0.000   0.063        1.000  0.215    0.000     0.000
           55   4006    3197.92        27.218         0.611      0.000   0.063        1.000  0.215    0.000     0.000
           55   4007    3677.42        27.218         0.611      0.000   0.063        1.000  0.215    0.000     0.000
           55   4008    2554.76        27.218         0.611      0.000   0.063        1.000  0.215    0.000     0.000
           55   4009     713.00        27.218         0.611      0.000   0.063        1.000  0.215    0.000     0.000
           55   4010     288.87        27.218         0.611      0.000   0.063        1.000  0.215    0.000     0.000
           55   4011    3199.99        27.218         0.611      0.000   0.063        1.000  0.215    0.000     0.000
           55   4012    1133.13        27.218         0.611      0.000   0.063        1.000  0.215    0.000     0.000
           55   4013     236.32        27.218         0.611      0.000   0.063        1.000  0.215    0.000     0.000
           55   4014     277.41        27.218         0.611      0.000   0.063        1.000  0.215    0.000     0.000
           55   4015    3557.47        27.218         0.611      0.000   0.063        1.000  0.215    0.000     0.000
           55   4016    4830.04        27.218         0.611      0.000   0.063        1.000  0.215    0.000     0.000
           55   4017     987.83        27.218         0.611      0.000   0.063        1.000  0.215    0.000     0.000
           55   4018     379.98        27.218         0.611      0.000   0.063        1.000  0.215    0.000     0.000
           55   4019    8607.68        27.218         0.611      0.000   0.063        1.000  0.215    0.000     0.000
           55   4020    1725.95        27.218         0.611      0.000   0.063        1.000  0.215    0.000     0.000
           55   4021    2214.84        27.218         0.611      0.000   0.063        1.000  0.215    0.000     0.000
           55   4022    7219.72        27.218         0.611      0.000   0.063        1.000  0.215    0.000     0.000
           55   4023   34961.21        27.218         0.611      0.000   0.063        1.000  0.215    0.000     0.000
           55   4024   49311.57        27.218         0.611      0.000   0.063        1.000  0.215    0.000     0.000
           55   4025   17916.29        27.218         0.611      0.000   0.063        1.000  0.215    0.000     0.000
           55   4026    7139.70        27.218         0.611      0.000   0.063        1.000  0.215    0.000     0.000

         Tributary/Main Channel Characteristics
              |--------------Tributary--------------------|---------------------Main---------------------------|
          Sub  Length(km) Slope Width(m) Cond(mm/hr)     N Length(km) Slope Width(m) Depth(m) Cond(mm/hr)     N
            1      122.27 0.005   115.24      0.0000 0.014      24.63 0.000   115.24     2.60     97.8730 0.190
            2      227.73 0.003   119.00      0.0000 0.014     104.74 0.001   119.00     2.65     83.0500 0.217
            3      122.14 0.001   115.99      0.0000 0.014      30.97 0.001  1336.83    13.31     50.4260 0.043
            4       41.73 0.009    45.33      0.0000 0.014      13.89 0.001   221.44     4.01     97.8730 0.190
            5       25.50 0.010    27.37      0.0000 0.014      14.11 0.001   211.86     3.90     97.8730 0.190
            6       66.15 0.003    67.28      0.0000 0.014      46.33 0.003   207.63     3.85     97.8730 0.190
            7      100.63 0.001    92.81      0.0000 0.014      77.12 0.000  1323.15    13.22     93.3400 0.360
            8       75.51 0.016    91.31      0.0000 0.014      12.07 0.000    91.31     2.22      9.5100 0.454
            9       88.82 0.016    83.24      0.0000 0.014      54.69 0.003   132.38     2.85      9.5100 0.454
           10      311.48 0.003   139.56      0.0000 0.014     195.81 0.000   139.56     2.95     10.3170 0.198
           11      135.20 0.003   111.40      0.0000 0.014     131.23 0.001   301.60     4.93    112.5810 0.398
           12      417.55 0.002   215.98      0.0000 0.014      12.48 0.005   273.58     4.62     84.6210 0.162
           13      313.34 0.004   202.25      0.0000 0.014     198.30 0.002   202.25     3.78      3.5640 0.147
           14      107.12 0.001   170.89      0.0000 0.014      71.09 0.000  1313.66    13.16     93.3400 0.360
           15       66.65 0.002    57.30      0.0000 0.014      51.38 0.001   357.31     5.52    117.7500 0.372
           16       89.81 0.002    76.79      0.0000 0.014      85.87 0.000   319.74     5.13    112.5810 0.398
           17        5.12 0.012     4.20      0.0000 0.014       1.21 0.000   534.89     7.23     63.1640 0.181
           18      111.94 0.014   103.78      0.0000 0.014      53.85 0.000   383.96     5.80    117.7500 0.372
           19      101.68 0.002    87.09      0.0000 0.014      82.86 0.000   297.26     4.89     38.5150 0.290
           20       19.07 0.006    21.62      0.0000 0.014      13.26 0.000   299.52     4.91     38.5150 0.290
           21      139.11 0.003   132.12      0.0000 0.014      52.89 0.001   132.12     2.85     24.0960 0.388
           22       69.19 0.004    48.43      0.0000 0.014      18.85 0.000   351.16     5.46     38.5150 0.290
           23      155.89 0.010   115.38      0.0000 0.014      69.74 0.005   115.38     2.60      0.8340 0.171
           24      146.38 0.011   110.91      0.0000 0.014      70.49 0.000   557.87     7.43     63.1640 0.181
           25       64.35 0.002    50.20      0.0000 0.014      30.67 0.000   305.36     4.97    108.3050 0.239
           26      115.15 0.010    91.26      0.0000 0.014      25.81 0.000   257.10     4.44    139.1820 0.302
           27      274.80 0.005   210.31      0.0000 0.014     166.89 0.002   210.31     3.88     70.1590 0.239
           28        2.89 0.027   118.08      0.0000 0.014      81.94 0.000   797.07     9.43     63.1640 0.181
           29      218.83 0.001   174.55      0.0000 0.014     178.91 0.000   253.09     4.39    108.3050 0.239
           30      122.31 0.011   119.68      0.0000 0.014      35.34 0.001   119.68     2.66     53.0580 0.376
           31      144.18 0.006   129.49      0.0000 0.014      26.40 0.000   188.93     3.61     89.4420 0.445
           32      114.15 0.012   104.66      0.0000 0.014      64.81 0.004   228.57     4.10    139.1820 0.302
           33      165.25 0.001   124.41      0.0000 0.014     158.75 0.000   159.16     3.22      6.9770 0.094
           34       84.47 0.002    82.83      0.0000 0.014       2.69 0.001    82.83     2.09      6.9770 0.094
           35       73.51 0.002    81.81      0.0000 0.014      25.09 0.000   261.11     4.48    104.4750 0.285
           36      174.03 0.001   203.23      0.0000 0.014     127.82 0.000  1215.60    12.49     18.7960 0.201
           37      110.15 0.007   116.09      0.0000 0.014      67.59 0.003   237.76     4.21    104.4750 0.285
           38      208.90 0.001   122.89      0.0000 0.014     119.66 0.001   122.89     2.71     44.8820 0.189
           39      119.52 0.008   141.26      0.0000 0.014      40.32 0.002   141.26     2.97    104.4750 0.285
           40       29.22 0.007    22.35      0.0000 0.014      19.61 0.002   110.14     2.52    103.0700 0.221
           41       86.16 0.004    98.92      0.0000 0.014      14.58 0.000    98.92     2.35     67.0980 0.293
           42      130.91 0.001   125.19      0.0000 0.014      89.73 0.000   889.83    10.15     75.6810 0.325
           43      114.09 0.004   105.05      0.0000 0.014       5.24 0.000   904.91    10.26     75.6810 0.325
           44      144.99 0.006   105.44      0.0000 0.014      41.71 0.004   105.44     2.45    103.0700 0.221
           45      167.69 0.004   104.83      0.0000 0.014      34.49 0.000   104.83     2.44     56.7840 0.389
           46       49.74 0.009    52.12      0.0000 0.014      10.19 0.000   936.40    10.50     58.4120 0.110
           47      135.81 0.002    92.97      0.0000 0.014      69.35 0.000   917.10    10.35     75.6810 0.325
           48      152.18 0.003   121.15      0.0000 0.014     141.57 0.001   167.35     3.33     67.0980 0.293
           49       56.86 0.001    71.85      0.0000 0.014      26.82 0.000  1178.21    12.24     18.7960 0.201
           50      137.58 0.001   160.76      0.0000 0.014      82.64 0.000  1171.52    12.19    129.2370 0.133
           51      115.39 0.001   156.55      0.0000 0.014      23.94 0.001  1125.08    11.87    129.2370 0.133
           52      185.77 0.001   140.72      0.0000 0.014      70.69 0.000   234.06     4.17     94.5110 0.282
           53      234.47 0.002   272.62      0.0000 0.014     112.33 0.000  1099.67    11.69     86.9310 0.271
           54      206.08 0.001   139.11      0.0000 0.014      34.68 0.000   139.11     2.94     72.0770 0.193
           55      145.71 0.003   205.90      0.0000 0.014     112.92 0.000   980.71    10.83     58.4120 0.110
